 !!                 h0, h1, h2, h3, h4, h5,h6
 nhtfrq          =   0,-24, -6, -6, -3,-24, 0
 mfilt           =   1, 30,120,120,240, 30, 1
 avgflag_pertape = 'A','A','I','A','A','A','I'
 fexcl1 = 'CFAD_SR532_CAL', 'LINOZ_DO3', 'LINOZ_DO3_PSC', 'LINOZ_O3CLIM', 'LINOZ_O3COL', 'LINOZ_SSO3', 'hstobie_linoz'
 ! monthly (h0) A
 fincl1 = 'extinct_sw_inp','extinct_lw_bnd7','extinct_lw_inp','CLD_CAL', 'TREFMNAV', 'TREFMXAV','IEFLX','ZMDT','ZMDQ','TTEND_CLUBB', 'RVMTEND_CLUBB', 'MPDT', 'MPDQ', 'DCQ', 'DTCOND'
 ! daily (h1) A
 fincl2 = 'FLUT','PRECT','U200','V200','U850','V850','Z500','OMEGA500','UBOT','VBOT','TREFHT','TREFHTMN:M','TREFHTMX:X','QREFHT','TS','PS','TMQ','TUQ','TVQ','TOZ', 'FLDS','FLNS','FSDS', 'FSNS', 'SHFLX', 'LHFLX', 'TGCLDCWP', 'TGCLDIWP', 'TGCLDLWP', 'CLDTOT', 'T250', 'T200', 'T150', 'T100', 'T050', 'T025', 'T010', 'T005', 'T002', 'T001', 'TTOP', 'U250', 'U150', 'U100', 'U050', 'U025', 'U010', 'U005', 'U002', 'U001', 'UTOP', 'FSNT', 'FLNT','PRECC','PRECTMX:X','PSL','RHREFHT', 'U10', 'Z200', 'QRS', 'QRL', 'Q1000', 'Q850', 'Q700', 'Q500', 'Q200', 'Q100', 'Q050', 'Q010', 'QBOT:A', 'U1000', 'U700', 'U500', 'U200', 'V1000', 'V700', 'V500', 'V100', 'V050', 'V010', 'VBOT', 'T1000', 'T850', 'T700','T500','T010','TBOT','Z1000', 'Z850', 'Z700', 'Z500', 'Z200', 'Z100', 'Z050', 'Z010','TROPF_P','TROPF_T','TROPF_Z'
 ! 6hourly (h2) I
 fincl3 = 'PSL','T200','T500','U850','V850','UBOT','VBOT','TREFHT', 'Z700', 'TBOT:M','FLDS', 'FSDS', 'PRECT', 'PS', 'QREFHT', 'TS','TMQ','U10','Z200:I','Z500:I','TTQ:I','TUQ:I','TVQ:I','Q:I', 'T:I', 'U:I', 'V:I', 'Z3:I'
 ! 6hourly (h3) A
 fincl4 = 'FLUT','U200','U850','PRECT','OMEGA500'
 ! 3hourly (h4) A
 fincl5 = 'PRECT','PRECC','TUQ','TVQ','QFLX','SHFLX','U90M','V90M'
 ! daily (h5) A
 fincl6 = 'CLDTOT_ISCCP','MEANCLDALB_ISCCP','MEANTAU_ISCCP','MEANPTOP_ISCCP','MEANTB_ISCCP','CLDTOT_CAL','CLDTOT_CAL_LIQ','CLDTOT_CAL_ICE','CLDTOT_CAL_UN','CLDHGH_CAL','CLDHGH_CAL_LIQ','CLDHGH_CAL_ICE','CLDHGH_CAL_UN','CLDMED_CAL','CLDMED_CAL_LIQ','CLDMED_CAL_ICE','CLDMED_CAL_UN','CLDLOW_CAL','CLDLOW_CAL_LIQ','CLDLOW_CAL_ICE','CLDLOW_CAL_UN'
 ! monthly (h6) I
 fincl7 = 'O3', 'PS', 'TROP_P'

 srf_emis_specifier             = 'DMS       -> /global/cfs/cdirs/e3sm/inputdata/atm/cam/chem/trop_mozart_aero/emis/DMSflux.1850-2100.1deg_latlon_conserv.POPmonthlyClimFromACES4BGC_c20160727.nc',
         'SO2       -> /global/cfs/cdirs/e3sm/inputdata/atm/cam/chem/trop_mozart_aero/emis/DECK_ne30/cmip6_mam4_so2_surf_1850-2014_c180205.nc',
         'bc_a4     -> /global/cfs/cdirs/e3sm/inputdata/atm/cam/chem/trop_mozart_aero/emis/DECK_ne30/cmip6_mam4_bc_a4_surf_1850-2014_c180205.nc',
         'num_a1    -> /global/cfs/cdirs/e3sm/inputdata/atm/cam/chem/trop_mozart_aero/emis/DECK_ne30/cmip6_mam4_num_a1_surf_1850-2014_c180205.nc',
         'num_a2    -> /global/cfs/cdirs/e3sm/inputdata/atm/cam/chem/trop_mozart_aero/emis/DECK_ne30/cmip6_mam4_num_a2_surf_1850-2014_c180205.nc',
         'num_a4    -> /global/cfs/cdirs/e3sm/inputdata/atm/cam/chem/trop_mozart_aero/emis/DECK_ne30/cmip6_mam4_num_a4_surf_1850-2014_c180205.nc',
         'pom_a4    -> /global/cfs/cdirs/e3sm/inputdata/atm/cam/chem/trop_mozart_aero/emis/DECK_ne30/cmip6_mam4_pom_a4_surf_1850-2014_c180205.nc',
         'so4_a1    -> /global/cfs/cdirs/e3sm/inputdata/atm/cam/chem/trop_mozart_aero/emis/DECK_ne30/cmip6_mam4_so4_a1_surf_1850-2014_c180205.nc',
         'so4_a2    -> /global/cfs/cdirs/e3sm/inputdata/atm/cam/chem/trop_mozart_aero/emis/DECK_ne30/cmip6_mam4_so4_a2_surf_1850-2014_c180205.nc'
 srf_emis_type          = 'INTERP_MISSING_MONTHS'

people/nanr> ls e3sm/inputdata/atm/eam/chem/emis/emissions_ssp370-BB_smoothed/
emissions-cmip6-ScenarioMIP_IAMC-AIM-ssp370-1-1_smoothed_DMS_bb_surface_mol_175001-210101_ne30_c20201016.nc
emissions-cmip6-ScenarioMIP_IAMC-AIM-ssp370-1-1_smoothed_SO2_bb_surface_mol_175001-210101_ne30_c20201016.nc
emissions-cmip6-ScenarioMIP_IAMC-AIM-ssp370-1-1_smoothed_SOAGx1.5_bb_surface_mol_175001-210101_ne30_c20201016.nc
emissions-cmip6-ScenarioMIP_IAMC-AIM-ssp370-1-1_smoothed_num_bc_a4_bb_surface_mol_175001-210101_ne30_c20201016.nc
emissions-cmip6-ScenarioMIP_IAMC-AIM-ssp370-1-1_smoothed_num_pom_a4_bb_surface_mol_175001-210101_ne30_c20201016.nc
emissions-cmip6-ScenarioMIP_IAMC-AIM-ssp370-1-1_smoothed_num_so4_a1_bb_surface_mol_175001-210101_ne30_c20201016.nc
emissions-cmip6-ScenarioMIP_IAMC-AIM-ssp370-1-1_smoothed_pom_a4_bb_surface_mol_175001-210101_ne30_c20201016.nc
emissions-cmip6-ScenarioMIP_IAMC-AIM-ssp370-1-1_smoothed_so4_a1_bb_surface_mol_175001-210101_ne30_c20201016.nc
emissions-cmip6_smoothed_num_pom_a4_anthro_surface_1920cycling_ne30_c20211028.nc
emissions-cmip6_smoothed_pom_a4_anthro_surface_1920cycling_ne30_c20211028.nc


<srf_emis_specifier>
         'bc_a4    -> $INPUTDATA_ROOT/atm/cam/chem/emis/CMIP6_emissions_1750_2015/emissions-cmip6_bc_a4_anthro_surface_1750-2015_0.9x1.25_c20170608.nc',
         'bc_a4    -> $INPUTDATA_ROOT/atm/cam/chem/emis/emissions_ssp370-BB_smoothed/emissions-cmip6-ScenarioMIP_IAMC-AIM-ssp370-1-1_smoothed_bc_a4_bb_surface_mol_175001-210101_0.9x1.25_c20201016.nc',
         'DMS      -> $INPUTDATA_ROOT/atm/cam/chem/emis/emissions_ssp370-BB_smoothed/emissions-cmip6-ScenarioMIP_IAMC-AIM-ssp370-1-1_smoothed_DMS_bb_surface_mol_175001-210101_0.9x1.25_c20201016.nc',
         'DMS      -> $INPUTDATA_ROOT/atm/cam/chem/emis/CMIP6_emissions_1750_2015/emissions-cmip6_DMS_other_surface_1750-2015_0.9x1.25_c20170322.nc',
         'num_a1   -> $INPUTDATA_ROOT/atm/cam/chem/emis/emissions_ssp370-BB_smoothed/emissions-cmip6-ScenarioMIP_IAMC-AIM-ssp370-1-1_smoothed_num_so4_a1_bb_surface_mol_175001-210101_0.9x1.25_c20201016.nc',
         'num_a1   -> $INPUTDATA_ROOT/atm/cam/chem/emis/emissions_ssp370/emissions-cmip6-ScenarioMIP_IAMC-AIM-ssp370-1-1_num_so4_a1_anthro-ag-ship_surface_mol_175001-210101_0.9x1.25_c20200924.nc',
         'num_a2   -> $INPUTDATA_ROOT/atm/cam/chem/emis/emissions_ssp370/emissions-cmip6-ScenarioMIP_IAMC-AIM-ssp370-1-1_num_so4_a2_anthro-res_surface_mol_175001-210101_0.9x1.25_c20200924.nc',
         'num_a4   -> $INPUTDATA_ROOT/atm/cam/chem/emis/emissions_ssp370-BB_smoothed/emissions-cmip6-ScenarioMIP_IAMC-AIM-ssp370-1-1_smoothed_num_bc_a4_bb_surface_mol_175001-210101_0.9x1.25_c20201016.nc',
         'num_a4   -> $INPUTDATA_ROOT/atm/cam/chem/emis/CMIP6_emissions_1750_2015/emissions-cmip6_num_bc_a4_anthro_surface_1750-2015_0.9x1.25_c20170608.nc',
         'num_a4   -> $INPUTDATA_ROOT/atm/cam/chem/emis/CMIP6_emissions_1750_2015/emissions-cmip6_num_pom_a4_anthro_surface_1750-2015_0.9x1.25_c20170608.nc',
         'num_a4   -> $INPUTDATA_ROOT/atm/cam/chem/emis/emissions_ssp370-BB_smoothed/emissions-cmip6-ScenarioMIP_IAMC-AIM-ssp370-1-1_smoothed_num_pom_a4_bb_surface_mol_175001-210101_0.9x1.25_c20201016.nc',
         'pom_a4   -> $INPUTDATA_ROOT/atm/cam/chem/emis/CMIP6_emissions_1750_2015/emissions-cmip6_pom_a4_anthro_surface_1750-2015_0.9x1.25_c20170608.nc',
         'pom_a4   -> $INPUTDATA_ROOT/atm/cam/chem/emis/emissions_ssp370-BB_smoothed/emissions-cmip6-ScenarioMIP_IAMC-AIM-ssp370-1-1_smoothed_pom_a4_bb_surface_mol_175001-210101_0.9x1.25_c20201016.nc',
         'SO2      -> $INPUTDATA_ROOT/atm/cam/chem/emis/emissions_ssp370/emissions-cmip6-ScenarioMIP_IAMC-AIM-ssp370-1-1_SO2_anthro-ag-ship-res_surface_mol_175001-210101_0.9x1.25_c20200924.nc',
         'SO2      -> $INPUTDATA_ROOT/atm/cam/chem/emis/CMIP6_emissions_1750_2015/emissions-cmip6_SO2_anthro-ene_surface_1750-2015_0.9x1.25_c20170616.nc',
         'SO2      -> $INPUTDATA_ROOT/atm/cam/chem/emis/emissions_ssp370-BB_smoothed/emissions-cmip6-ScenarioMIP_IAMC-AIM-ssp370-1-1_smoothed_SO2_bb_surface_mol_175001-210101_0.9x1.25_c20201016.nc',
         'so4_a1   -> $INPUTDATA_ROOT/atm/cam/chem/emis/emissions_ssp370/emissions-cmip6-ScenarioMIP_IAMC-AIM-ssp370-1-1_so4_a1_anthro-ag-ship_surface_mol_175001-210101_0.9x1.25_c20200924.nc',
         'so4_a1   -> $INPUTDATA_ROOT/atm/cam/chem/emis/emissions_ssp370-BB_smoothed/emissions-cmip6-ScenarioMIP_IAMC-AIM-ssp370-1-1_smoothed_so4_a1_bb_surface_mol_175001-210101_0.9x1.25_c20201016.nc',
         'so4_a2   -> $INPUTDATA_ROOT/atm/cam/chem/emis/emissions_ssp370/emissions-cmip6-ScenarioMIP_IAMC-AIM-ssp370-1-1_so4_a2_anthro-res_surface_mol_175001-210101_0.9x1.25_c20200924.nc',
         'SOAG     -> $INPUTDATA_ROOT/atm/cam/chem/emis/CMIP6_emissions_1750_2015/emissions-cmip6_SOAGx1.5_anthro_surface_1750-2015_0.9x1.25_c20170608.nc',
         'SOAG     -> $INPUTDATA_ROOT/atm/cam/chem/emis/emissions_ssp370-BB_smoothed/emissions-cmip6-ScenarioMIP_IAMC-AIM-ssp370-1-1_smoothed_SOAGx1.5_bb_surface_mol_175001-210101_0.9x1.25_c20201016.nc',
         'SOAG     -> $INPUTDATA_ROOT/atm/cam/chem/emis/CMIP6_emissions_1750_2015/emissions-cmip6_SOAGx1.5_biogenic_surface_1750-2015_0.9x1.25_c20170322.nc'
</srf_emis_specifier>


