ice_ic = 'default'
!ice_ic = 'B.E.13.B1950C5.ne120_t12.cesm-ihesp-1950cntl.011.cice.r.0055-01-01-00000.nc'

grid_file = "/work/02503/edwardsj/CESM/inputdata//share/domains/domain.ocn.ne30np4_mt12.200214.nc"
kmt_file  = "/work/02503/edwardsj/CESM/inputdata//share/domains/domain.ocn.ne30np4_mt12.200214.nc"

stream_fldfilename = 
        "/work2/06091/nanr/frontera/SST-highres/noLeapFillScale/sst_HADISST_0.25_MOHC-HADISST-s-19500101-19501231.nc",
        "/work2/06091/nanr/frontera/SST-highres/noLeapFillScale/sst_HADISST_0.25_MOHC-HADISST-s-19510101-19511231.nc",
        "/work2/06091/nanr/frontera/SST-highres/noLeapFillScale/sst_HADISST_0.25_MOHC-HADISST-s-19520101-19521231.nc",
        "/work2/06091/nanr/frontera/SST-highres/noLeapFillScale/sst_HADISST_0.25_MOHC-HADISST-s-19530101-19531231.nc",
        "/work2/06091/nanr/frontera/SST-highres/noLeapFillScale/sst_HADISST_0.25_MOHC-HADISST-s-19540101-19541231.nc",
        "/work2/06091/nanr/frontera/SST-highres/noLeapFillScale/sst_HADISST_0.25_MOHC-HADISST-s-19550101-19551231.nc",
        "/work2/06091/nanr/frontera/SST-highres/noLeapFillScale/sst_HADISST_0.25_MOHC-HADISST-s-19560101-19561231.nc",
        "/work2/06091/nanr/frontera/SST-highres/noLeapFillScale/sst_HADISST_0.25_MOHC-HADISST-s-19570101-19571231.nc",
        "/work2/06091/nanr/frontera/SST-highres/noLeapFillScale/sst_HADISST_0.25_MOHC-HADISST-s-19580101-19581231.nc",
        "/work2/06091/nanr/frontera/SST-highres/noLeapFillScale/sst_HADISST_0.25_MOHC-HADISST-s-19590101-19591231.nc",
        "/work2/06091/nanr/frontera/SST-highres/noLeapFillScale/sst_HADISST_0.25_MOHC-HADISST-s-19600101-19601231.nc",
        "/work2/06091/nanr/frontera/SST-highres/noLeapFillScale/sst_HADISST_0.25_MOHC-HADISST-s-19610101-19611231.nc",
        "/work2/06091/nanr/frontera/SST-highres/noLeapFillScale/sst_HADISST_0.25_MOHC-HADISST-s-19620101-19621231.nc",
        "/work2/06091/nanr/frontera/SST-highres/noLeapFillScale/sst_HADISST_0.25_MOHC-HADISST-s-19630101-19631231.nc",
        "/work2/06091/nanr/frontera/SST-highres/noLeapFillScale/sst_HADISST_0.25_MOHC-HADISST-s-19640101-19641231.nc",
        "/work2/06091/nanr/frontera/SST-highres/noLeapFillScale/sst_HADISST_0.25_MOHC-HADISST-s-19650101-19651231.nc",
        "/work2/06091/nanr/frontera/SST-highres/noLeapFillScale/sst_HADISST_0.25_MOHC-HADISST-s-19660101-19661231.nc",
        "/work2/06091/nanr/frontera/SST-highres/noLeapFillScale/sst_HADISST_0.25_MOHC-HADISST-s-19670101-19671231.nc",
        "/work2/06091/nanr/frontera/SST-highres/noLeapFillScale/sst_HADISST_0.25_MOHC-HADISST-s-19680101-19681231.nc",
        "/work2/06091/nanr/frontera/SST-highres/noLeapFillScale/sst_HADISST_0.25_MOHC-HADISST-s-19690101-19691231.nc",
        "/work2/06091/nanr/frontera/SST-highres/noLeapFillScale/sst_HADISST_0.25_MOHC-HADISST-s-19700101-19701231.nc",
        "/work2/06091/nanr/frontera/SST-highres/noLeapFillScale/sst_HADISST_0.25_MOHC-HADISST-s-19710101-19711231.nc",
        "/work2/06091/nanr/frontera/SST-highres/noLeapFillScale/sst_HADISST_0.25_MOHC-HADISST-s-19720101-19721231.nc",
        "/work2/06091/nanr/frontera/SST-highres/noLeapFillScale/sst_HADISST_0.25_MOHC-HADISST-s-19730101-19731231.nc",
        "/work2/06091/nanr/frontera/SST-highres/noLeapFillScale/sst_HADISST_0.25_MOHC-HADISST-s-19740101-19741231.nc",
        "/work2/06091/nanr/frontera/SST-highres/noLeapFillScale/sst_HADISST_0.25_MOHC-HADISST-s-19750101-19751231.nc",
        "/work2/06091/nanr/frontera/SST-highres/noLeapFillScale/sst_HADISST_0.25_MOHC-HADISST-s-19760101-19761231.nc",
        "/work2/06091/nanr/frontera/SST-highres/noLeapFillScale/sst_HADISST_0.25_MOHC-HADISST-s-19770101-19771231.nc",
        "/work2/06091/nanr/frontera/SST-highres/noLeapFillScale/sst_HADISST_0.25_MOHC-HADISST-s-19780101-19781231.nc",
        "/work2/06091/nanr/frontera/SST-highres/noLeapFillScale/sst_HADISST_0.25_MOHC-HADISST-s-19790101-19791231.nc",
        "/work2/06091/nanr/frontera/SST-highres/noLeapFillScale/sst_HADISST_0.25_MOHC-HADISST-s-19800101-19801231.nc",
        "/work2/06091/nanr/frontera/SST-highres/noLeapFillScale/sst_HADISST_0.25_MOHC-HADISST-s-19810101-19811231.nc",
        "/work2/06091/nanr/frontera/SST-highres/noLeapFillScale/sst_HADISST_0.25_MOHC-HADISST-s-19820101-19821231.nc",
        "/work2/06091/nanr/frontera/SST-highres/noLeapFillScale/sst_HADISST_0.25_MOHC-HADISST-s-19830101-19831231.nc",
        "/work2/06091/nanr/frontera/SST-highres/noLeapFillScale/sst_HADISST_0.25_MOHC-HADISST-s-19840101-19841231.nc",
        "/work2/06091/nanr/frontera/SST-highres/noLeapFillScale/sst_HADISST_0.25_MOHC-HADISST-s-19850101-19851231.nc",
        "/work2/06091/nanr/frontera/SST-highres/noLeapFillScale/sst_HADISST_0.25_MOHC-HADISST-s-19860101-19861231.nc",
        "/work2/06091/nanr/frontera/SST-highres/noLeapFillScale/sst_HADISST_0.25_MOHC-HADISST-s-19870101-19871231.nc",
        "/work2/06091/nanr/frontera/SST-highres/noLeapFillScale/sst_HADISST_0.25_MOHC-HADISST-s-19880101-19881231.nc",
        "/work2/06091/nanr/frontera/SST-highres/noLeapFillScale/sst_HADISST_0.25_MOHC-HADISST-s-19890101-19891231.nc",
        "/work2/06091/nanr/frontera/SST-highres/noLeapFillScale/sst_HADISST_0.25_MOHC-HADISST-s-19900101-19901231.nc",
        "/work2/06091/nanr/frontera/SST-highres/noLeapFillScale/sst_HADISST_0.25_MOHC-HADISST-s-19910101-19911231.nc",
        "/work2/06091/nanr/frontera/SST-highres/noLeapFillScale/sst_HADISST_0.25_MOHC-HADISST-s-19920101-19921231.nc",
        "/work2/06091/nanr/frontera/SST-highres/noLeapFillScale/sst_HADISST_0.25_MOHC-HADISST-s-19930101-19931231.nc",
        "/work2/06091/nanr/frontera/SST-highres/noLeapFillScale/sst_HADISST_0.25_MOHC-HADISST-s-19940101-19941231.nc",
        "/work2/06091/nanr/frontera/SST-highres/noLeapFillScale/sst_HADISST_0.25_MOHC-HADISST-s-19950101-19951231.nc",
        "/work2/06091/nanr/frontera/SST-highres/noLeapFillScale/sst_HADISST_0.25_MOHC-HADISST-s-19960101-19961231.nc",
        "/work2/06091/nanr/frontera/SST-highres/noLeapFillScale/sst_HADISST_0.25_MOHC-HADISST-s-19970101-19971231.nc",
        "/work2/06091/nanr/frontera/SST-highres/noLeapFillScale/sst_HADISST_0.25_MOHC-HADISST-s-19980101-19981231.nc",
        "/work2/06091/nanr/frontera/SST-highres/noLeapFillScale/sst_HADISST_0.25_MOHC-HADISST-s-19990101-19991231.nc",
        "/work2/06091/nanr/frontera/SST-highres/noLeapFillScale/sst_HADISST_0.25_MOHC-HADISST-s-20000101-20001231.nc",
        "/work2/06091/nanr/frontera/SST-highres/noLeapFillScale/sst_HADISST_0.25_MOHC-HADISST-s-20010101-20011231.nc",
        "/work2/06091/nanr/frontera/SST-highres/noLeapFillScale/sst_HADISST_0.25_MOHC-HADISST-s-20020101-20021231.nc",
        "/work2/06091/nanr/frontera/SST-highres/noLeapFillScale/sst_HADISST_0.25_MOHC-HADISST-s-20030101-20031231.nc",
        "/work2/06091/nanr/frontera/SST-highres/noLeapFillScale/sst_HADISST_0.25_MOHC-HADISST-s-20040101-20041231.nc",
        "/work2/06091/nanr/frontera/SST-highres/noLeapFillScale/sst_HADISST_0.25_MOHC-HADISST-s-20050101-20051231.nc",
        "/work2/06091/nanr/frontera/SST-highres/noLeapFillScale/sst_HADISST_0.25_MOHC-HADISST-s-20060101-20061231.nc",
        "/work2/06091/nanr/frontera/SST-highres/noLeapFillScale/sst_HADISST_0.25_MOHC-HADISST-s-20070101-20071231.nc",
        "/work2/06091/nanr/frontera/SST-highres/noLeapFillScale/sst_HADISST_0.25_MOHC-HADISST-s-20080101-20081231.nc",
        "/work2/06091/nanr/frontera/SST-highres/noLeapFillScale/sst_HADISST_0.25_MOHC-HADISST-s-20090101-20091231.nc",
        "/work2/06091/nanr/frontera/SST-highres/noLeapFillScale/sst_HADISST_0.25_MOHC-HADISST-s-20100101-20101231.nc",
        "/work2/06091/nanr/frontera/SST-highres/noLeapFillScale/sst_HADISST_0.25_MOHC-HADISST-s-20110101-20111231.nc",
        "/work2/06091/nanr/frontera/SST-highres/noLeapFillScale/sst_HADISST_0.25_MOHC-HADISST-s-20120101-20121231.nc",
        "/work2/06091/nanr/frontera/SST-highres/noLeapFillScale/sst_HADISST_0.25_MOHC-HADISST-s-20130101-20131231.nc",
        "/work2/06091/nanr/frontera/SST-highres/noLeapFillScale/sst_HADISST_0.25_MOHC-HADISST-s-20140101-20141231.nc",
        "/work2/06091/nanr/frontera/SST-highres/noLeapFillScale/sst_HADISST_0.25_MOHC-HADISST-s-20150101-20151231.nc",
        "/work2/06091/nanr/frontera/SST-highres/noLeapFillScale/sst_input4MIPs_HighResMIP_MOHC-highresSST-future.20160101-20161231.filled.nc",
        "/work2/06091/nanr/frontera/SST-highres/noLeapFillScale/sst_input4MIPs_HighResMIP_MOHC-highresSST-future.20170101-20171231.filled.nc",
        "/work2/06091/nanr/frontera/SST-highres/noLeapFillScale/sst_input4MIPs_HighResMIP_MOHC-highresSST-future.20180101-20181231.filled.nc",
        "/work2/06091/nanr/frontera/SST-highres/noLeapFillScale/sst_input4MIPs_HighResMIP_MOHC-highresSST-future.20190101-20191231.filled.nc",
        "/work2/06091/nanr/frontera/SST-highres/noLeapFillScale/sst_input4MIPs_HighResMIP_MOHC-highresSST-future.20200101-20201231.filled.nc",
        "/work2/06091/nanr/frontera/SST-highres/noLeapFillScale/sst_input4MIPs_HighResMIP_MOHC-highresSST-future.20210101-20211231.filled.nc",
        "/work2/06091/nanr/frontera/SST-highres/noLeapFillScale/sst_input4MIPs_HighResMIP_MOHC-highresSST-future.20220101-20221231.filled.nc",
        "/work2/06091/nanr/frontera/SST-highres/noLeapFillScale/sst_input4MIPs_HighResMIP_MOHC-highresSST-future.20230101-20231231.filled.nc",
        "/work2/06091/nanr/frontera/SST-highres/noLeapFillScale/sst_input4MIPs_HighResMIP_MOHC-highresSST-future.20240101-20241231.filled.nc",
        "/work2/06091/nanr/frontera/SST-highres/noLeapFillScale/sst_input4MIPs_HighResMIP_MOHC-highresSST-future.20250101-20251231.filled.nc",
        "/work2/06091/nanr/frontera/SST-highres/noLeapFillScale/sst_input4MIPs_HighResMIP_MOHC-highresSST-future.20260101-20261231.filled.nc",
        "/work2/06091/nanr/frontera/SST-highres/noLeapFillScale/sst_input4MIPs_HighResMIP_MOHC-highresSST-future.20270101-20271231.filled.nc",
        "/work2/06091/nanr/frontera/SST-highres/noLeapFillScale/sst_input4MIPs_HighResMIP_MOHC-highresSST-future.20280101-20281231.filled.nc",
        "/work2/06091/nanr/frontera/SST-highres/noLeapFillScale/sst_input4MIPs_HighResMIP_MOHC-highresSST-future.20290101-20291231.filled.nc",
        "/work2/06091/nanr/frontera/SST-highres/noLeapFillScale/sst_input4MIPs_HighResMIP_MOHC-highresSST-future.20300101-20301231.filled.nc",
        "/work2/06091/nanr/frontera/SST-highres/noLeapFillScale/sst_input4MIPs_HighResMIP_MOHC-highresSST-future.20310101-20311231.filled.nc",
        "/work2/06091/nanr/frontera/SST-highres/noLeapFillScale/sst_input4MIPs_HighResMIP_MOHC-highresSST-future.20320101-20321231.filled.nc",
        "/work2/06091/nanr/frontera/SST-highres/noLeapFillScale/sst_input4MIPs_HighResMIP_MOHC-highresSST-future.20330101-20331231.filled.nc",
        "/work2/06091/nanr/frontera/SST-highres/noLeapFillScale/sst_input4MIPs_HighResMIP_MOHC-highresSST-future.20340101-20341231.filled.nc",
        "/work2/06091/nanr/frontera/SST-highres/noLeapFillScale/sst_input4MIPs_HighResMIP_MOHC-highresSST-future.20350101-20351231.filled.nc",
        "/work2/06091/nanr/frontera/SST-highres/noLeapFillScale/sst_input4MIPs_HighResMIP_MOHC-highresSST-future.20360101-20361231.filled.nc",
        "/work2/06091/nanr/frontera/SST-highres/noLeapFillScale/sst_input4MIPs_HighResMIP_MOHC-highresSST-future.20370101-20371231.filled.nc",
        "/work2/06091/nanr/frontera/SST-highres/noLeapFillScale/sst_input4MIPs_HighResMIP_MOHC-highresSST-future.20380101-20381231.filled.nc",
        "/work2/06091/nanr/frontera/SST-highres/noLeapFillScale/sst_input4MIPs_HighResMIP_MOHC-highresSST-future.20390101-20391231.filled.nc",
        "/work2/06091/nanr/frontera/SST-highres/noLeapFillScale/sst_input4MIPs_HighResMIP_MOHC-highresSST-future.20400101-20401231.filled.nc",
        "/work2/06091/nanr/frontera/SST-highres/noLeapFillScale/sst_input4MIPs_HighResMIP_MOHC-highresSST-future.20410101-20411231.filled.nc",
        "/work2/06091/nanr/frontera/SST-highres/noLeapFillScale/sst_input4MIPs_HighResMIP_MOHC-highresSST-future.20420101-20421231.filled.nc",
        "/work2/06091/nanr/frontera/SST-highres/noLeapFillScale/sst_input4MIPs_HighResMIP_MOHC-highresSST-future.20430101-20431231.filled.nc",
        "/work2/06091/nanr/frontera/SST-highres/noLeapFillScale/sst_input4MIPs_HighResMIP_MOHC-highresSST-future.20440101-20441231.filled.nc",
        "/work2/06091/nanr/frontera/SST-highres/noLeapFillScale/sst_input4MIPs_HighResMIP_MOHC-highresSST-future.20450101-20451231.filled.nc",
        "/work2/06091/nanr/frontera/SST-highres/noLeapFillScale/sst_input4MIPs_HighResMIP_MOHC-highresSST-future.20460101-20461231.filled.nc",
        "/work2/06091/nanr/frontera/SST-highres/noLeapFillScale/sst_input4MIPs_HighResMIP_MOHC-highresSST-future.20470101-20471231.filled.nc",
        "/work2/06091/nanr/frontera/SST-highres/noLeapFillScale/sst_input4MIPs_HighResMIP_MOHC-highresSST-future.20480101-20481231.filled.nc",
        "/work2/06091/nanr/frontera/SST-highres/noLeapFillScale/sst_input4MIPs_HighResMIP_MOHC-highresSST-future.20490101-20491231.filled.nc",
        "/work2/06091/nanr/frontera/SST-highres/noLeapFillScale/sst_input4MIPs_HighResMIP_MOHC-highresSST-future.20500101-20501231.filled.nc",
histfreq = 'm','d','x','x','x'
histfreq_n = 1,1,1,1,1
f_aice = 'mdxxx'
f_hi = 'mdxxx'
f_hs = 'mdxxx'
f_Tsfc = 'mdxxx'
f_uvel = 'mdxxx'
f_vvel = 'mdxxx'
f_icepresent = 'mdxxx'
f_congel = 'mxxxx'
f_frazil = 'mxxxx'
f_meltt = 'mxxxx'
f_melts = 'mxxxx'
f_meltb = 'mxxxx'
f_meltl = 'mxxxx'
f_dvidtd = 'mxxxx'
f_dvidtt = 'mxxxx'
f_daidtt = 'mxxxx'
f_daidtd = 'mxxxx'
f_apond_ai = 'mxxxx'
f_fy = 'mxxxx'
f_hisnap = 'mxxxx'
f_aisnap = 'mxxxx'
f_snow_ai = 'mxxxx'
f_rain_ai = 'mxxxx'
f_fswabs_ai = 'mxxxx'
f_flwup_ai = 'mxxxx'
f_evap_ai = 'mxxxx'
f_Tair = 'mxxxx'
f_Tref = 'mxxxx'
f_Qref = 'mxxxx'
f_fswthru_ai = 'mxxxx'
f_fsurf_ai = 'mxxxx'
f_fcondtop_ai = 'mxxxx'
f_iage = 'mxxxx'
f_alvdr = 'mxxxx'
f_alvdf = 'mxxxx'
f_alidr = 'mxxxx'
f_alidf = 'mxxxx'
f_trsig = 'mxxxx'
