!ice_ic = 'default'
!ice_ic = 'f.e13.FAMIPC5.ne120_ne120_mt12.cesm-ihesp-1950-2050.001.cice.r.2006-01-01-00000.nc'
 ice_ic = 'f.e13.FAMIPC5.ne120_ne120_mt12.cesm-ihesp-1950-2050.001.cice.r.1956-01-01-00000.nc'

grid_file = "/work/02503/edwardsj/CESM/inputdata//share/domains/domain.ocn.ne120np4_tx0.1v2.191122.nc"
kmt_file  = "/work/02503/edwardsj/CESM/inputdata//share/domains/domain.ocn.ne120np4_tx0.1v2.191122.nc"

stream_fldfilename = 
        "/work/06091/nanr/frontera/SST-highres/noLeapFillScale/sst_HADISST_0.25_MOHC-HADISST-s-19500101-19501231.nc",
        "/work/06091/nanr/frontera/SST-highres/noLeapFillScale/sst_HADISST_0.25_MOHC-HADISST-s-19510101-19511231.nc",
        "/work/06091/nanr/frontera/SST-highres/noLeapFillScale/sst_HADISST_0.25_MOHC-HADISST-s-19520101-19521231.nc",
        "/work/06091/nanr/frontera/SST-highres/noLeapFillScale/sst_HADISST_0.25_MOHC-HADISST-s-19530101-19531231.nc",
        "/work/06091/nanr/frontera/SST-highres/noLeapFillScale/sst_HADISST_0.25_MOHC-HADISST-s-19540101-19541231.nc",
        "/work/06091/nanr/frontera/SST-highres/noLeapFillScale/sst_HADISST_0.25_MOHC-HADISST-s-19550101-19551231.nc",
        "/work/06091/nanr/frontera/SST-highres/noLeapFillScale/sst_HADISST_0.25_MOHC-HADISST-s-19560101-19561231.nc",
        "/work/06091/nanr/frontera/SST-highres/noLeapFillScale/sst_HADISST_0.25_MOHC-HADISST-s-19570101-19571231.nc",
        "/work/06091/nanr/frontera/SST-highres/noLeapFillScale/sst_HADISST_0.25_MOHC-HADISST-s-19580101-19581231.nc",
        "/work/06091/nanr/frontera/SST-highres/noLeapFillScale/sst_HADISST_0.25_MOHC-HADISST-s-19590101-19591231.nc",
        "/work/06091/nanr/frontera/SST-highres/noLeapFillScale/sst_HADISST_0.25_MOHC-HADISST-s-19600101-19601231.nc",
        "/work/06091/nanr/frontera/SST-highres/noLeapFillScale/sst_HADISST_0.25_MOHC-HADISST-s-19610101-19611231.nc",
        "/work/06091/nanr/frontera/SST-highres/noLeapFillScale/sst_HADISST_0.25_MOHC-HADISST-s-19620101-19621231.nc",
        "/work/06091/nanr/frontera/SST-highres/noLeapFillScale/sst_HADISST_0.25_MOHC-HADISST-s-19630101-19631231.nc",
        "/work/06091/nanr/frontera/SST-highres/noLeapFillScale/sst_HADISST_0.25_MOHC-HADISST-s-19640101-19641231.nc",
        "/work/06091/nanr/frontera/SST-highres/noLeapFillScale/sst_HADISST_0.25_MOHC-HADISST-s-19650101-19651231.nc",
        "/work/06091/nanr/frontera/SST-highres/noLeapFillScale/sst_HADISST_0.25_MOHC-HADISST-s-19660101-19661231.nc",
        "/work/06091/nanr/frontera/SST-highres/noLeapFillScale/sst_HADISST_0.25_MOHC-HADISST-s-19670101-19671231.nc",
        "/work/06091/nanr/frontera/SST-highres/noLeapFillScale/sst_HADISST_0.25_MOHC-HADISST-s-19680101-19681231.nc",
        "/work/06091/nanr/frontera/SST-highres/noLeapFillScale/sst_HADISST_0.25_MOHC-HADISST-s-19690101-19691231.nc",
        "/work/06091/nanr/frontera/SST-highres/noLeapFillScale/sst_HADISST_0.25_MOHC-HADISST-s-19700101-19701231.nc",
        "/work/06091/nanr/frontera/SST-highres/noLeapFillScale/sst_HADISST_0.25_MOHC-HADISST-s-19710101-19711231.nc",
        "/work/06091/nanr/frontera/SST-highres/noLeapFillScale/sst_HADISST_0.25_MOHC-HADISST-s-19720101-19721231.nc",
        "/work/06091/nanr/frontera/SST-highres/noLeapFillScale/sst_HADISST_0.25_MOHC-HADISST-s-19730101-19731231.nc",
        "/work/06091/nanr/frontera/SST-highres/noLeapFillScale/sst_HADISST_0.25_MOHC-HADISST-s-19740101-19741231.nc",
        "/work/06091/nanr/frontera/SST-highres/noLeapFillScale/sst_HADISST_0.25_MOHC-HADISST-s-19750101-19751231.nc",
        "/work/06091/nanr/frontera/SST-highres/noLeapFillScale/sst_HADISST_0.25_MOHC-HADISST-s-19760101-19761231.nc",
        "/work/06091/nanr/frontera/SST-highres/noLeapFillScale/sst_HADISST_0.25_MOHC-HADISST-s-19770101-19771231.nc",
        "/work/06091/nanr/frontera/SST-highres/noLeapFillScale/sst_HADISST_0.25_MOHC-HADISST-s-19780101-19781231.nc",
        "/work/06091/nanr/frontera/SST-highres/noLeapFillScale/sst_HADISST_0.25_MOHC-HADISST-s-19790101-19791231.nc",
        "/work/06091/nanr/frontera/SST-highres/noLeapFillScale/sst_HADISST_0.25_MOHC-HADISST-s-19800101-19801231.nc",
        "/work/06091/nanr/frontera/SST-highres/noLeapFillScale/sst_HADISST_0.25_MOHC-HADISST-s-19810101-19811231.nc",
        "/work/06091/nanr/frontera/SST-highres/noLeapFillScale/sst_HADISST_0.25_MOHC-HADISST-s-19820101-19821231.nc",
        "/work/06091/nanr/frontera/SST-highres/noLeapFillScale/sst_HADISST_0.25_MOHC-HADISST-s-19830101-19831231.nc",
        "/work/06091/nanr/frontera/SST-highres/noLeapFillScale/sst_HADISST_0.25_MOHC-HADISST-s-19840101-19841231.nc",
        "/work/06091/nanr/frontera/SST-highres/noLeapFillScale/sst_HADISST_0.25_MOHC-HADISST-s-19850101-19851231.nc",
        "/work/06091/nanr/frontera/SST-highres/noLeapFillScale/sst_HADISST_0.25_MOHC-HADISST-s-19860101-19861231.nc",
        "/work/06091/nanr/frontera/SST-highres/noLeapFillScale/sst_HADISST_0.25_MOHC-HADISST-s-19870101-19871231.nc",
        "/work/06091/nanr/frontera/SST-highres/noLeapFillScale/sst_HADISST_0.25_MOHC-HADISST-s-19880101-19881231.nc",
        "/work/06091/nanr/frontera/SST-highres/noLeapFillScale/sst_HADISST_0.25_MOHC-HADISST-s-19890101-19891231.nc",
        "/work/06091/nanr/frontera/SST-highres/noLeapFillScale/sst_HADISST_0.25_MOHC-HADISST-s-19900101-19901231.nc",
        "/work/06091/nanr/frontera/SST-highres/noLeapFillScale/sst_HADISST_0.25_MOHC-HADISST-s-19910101-19911231.nc",
        "/work/06091/nanr/frontera/SST-highres/noLeapFillScale/sst_HADISST_0.25_MOHC-HADISST-s-19920101-19921231.nc",
        "/work/06091/nanr/frontera/SST-highres/noLeapFillScale/sst_HADISST_0.25_MOHC-HADISST-s-19930101-19931231.nc",
        "/work/06091/nanr/frontera/SST-highres/noLeapFillScale/sst_HADISST_0.25_MOHC-HADISST-s-19940101-19941231.nc",
        "/work/06091/nanr/frontera/SST-highres/noLeapFillScale/sst_HADISST_0.25_MOHC-HADISST-s-19950101-19951231.nc",
        "/work/06091/nanr/frontera/SST-highres/noLeapFillScale/sst_HADISST_0.25_MOHC-HADISST-s-19960101-19961231.nc",
        "/work/06091/nanr/frontera/SST-highres/noLeapFillScale/sst_HADISST_0.25_MOHC-HADISST-s-19970101-19971231.nc",
        "/work/06091/nanr/frontera/SST-highres/noLeapFillScale/sst_HADISST_0.25_MOHC-HADISST-s-19980101-19981231.nc",
        "/work/06091/nanr/frontera/SST-highres/noLeapFillScale/sst_HADISST_0.25_MOHC-HADISST-s-19990101-19991231.nc",
        "/work/06091/nanr/frontera/SST-highres/noLeapFillScale/sst_HADISST_0.25_MOHC-HADISST-s-20000101-20001231.nc",
        "/work/06091/nanr/frontera/SST-highres/noLeapFillScale/sst_HADISST_0.25_MOHC-HADISST-s-20010101-20011231.nc",
        "/work/06091/nanr/frontera/SST-highres/noLeapFillScale/sst_HADISST_0.25_MOHC-HADISST-s-20020101-20021231.nc",
        "/work/06091/nanr/frontera/SST-highres/noLeapFillScale/sst_HADISST_0.25_MOHC-HADISST-s-20030101-20031231.nc",
        "/work/06091/nanr/frontera/SST-highres/noLeapFillScale/sst_HADISST_0.25_MOHC-HADISST-s-20040101-20041231.nc",
        "/work/06091/nanr/frontera/SST-highres/noLeapFillScale/sst_HADISST_0.25_MOHC-HADISST-s-20050101-20051231.nc",
        "/work/06091/nanr/frontera/SST-highres/noLeapFillScale/sst_HADISST_0.25_MOHC-HADISST-s-20060101-20061231.nc",
        "/work/06091/nanr/frontera/SST-highres/noLeapFillScale/sst_HADISST_0.25_MOHC-HADISST-s-20070101-20071231.nc",
        "/work/06091/nanr/frontera/SST-highres/noLeapFillScale/sst_HADISST_0.25_MOHC-HADISST-s-20080101-20081231.nc",
        "/work/06091/nanr/frontera/SST-highres/noLeapFillScale/sst_HADISST_0.25_MOHC-HADISST-s-20090101-20091231.nc",
        "/work/06091/nanr/frontera/SST-highres/noLeapFillScale/sst_HADISST_0.25_MOHC-HADISST-s-20100101-20101231.nc",
        "/work/06091/nanr/frontera/SST-highres/noLeapFillScale/sst_HADISST_0.25_MOHC-HADISST-s-20110101-20111231.nc",
        "/work/06091/nanr/frontera/SST-highres/noLeapFillScale/sst_HADISST_0.25_MOHC-HADISST-s-20120101-20121231.nc",
        "/work/06091/nanr/frontera/SST-highres/noLeapFillScale/sst_HADISST_0.25_MOHC-HADISST-s-20130101-20131231.nc",
        "/work/06091/nanr/frontera/SST-highres/noLeapFillScale/sst_HADISST_0.25_MOHC-HADISST-s-20140101-20141231.nc",
        "/work/06091/nanr/frontera/SST-highres/noLeapFillScale/sst_HADISST_0.25_MOHC-HADISST-s-20150101-20151231.nc",
histfreq = 'm','d','x','x','x'
histfreq_n = 1,1,1,1,1
