! Users should add all user specific namelist changes below in the form of 
! namelist_var = new_namelist_value 

aircraft_co2_file = '/glade/p/cesmdata/cseg/inputdata/atm/cam/ggas/emissions-cmip6_CO2_anthro_ac_ScenarioMIP_IAMC-REMIND-MAGPIE-ssp585_201401-210112_fv_1.9x2.5_c20190207.nc'

 
