init_ts_file = '/work/02503/edwardsj/CESM/inputdata/ccsm4_init/B.E.13.BHISTC5.ne120_t12.sehires38.003.sunway/1920-01-01/B.E.13.BHISTC5.ne120_t12.sehires38.003.sunway.pop.r.1920-01-01-00000.nc'

