!!       h0,   h1,    h2,  h3,   h4,   h5
nhtfrq =  0,  -24,    -6,  -6,   -6,   -3
mfilt   = 1,  365,   146,  73,  146,  292

! exclude these variables (from h0)
fexcl1 = 'RFL_PARASOL','CFAD_SR532_CAL','MOL532_CAL','MEANTB_ISCCP','MEANTBCLR_ISCCP'

cosp_llidar_sim = .true.
cosp_lisccp_sim = .true.


 ext_frc_specifier              = 'SO2         -> /work/02503/edwardsj/CESM/inputdata//atm/cam/chem/trop_mozart_aero/emis/RCP85_mam3_so2_elev_19400115-20601215_c190718.nc',
         'bc_a1       -> /work/02503/edwardsj/CESM/inputdata//atm/cam/chem/trop_mozart_aero/emis/RCP85_mam3_bc_elev_19400115-20601215_c190718.nc',
         'num_a1      -> /work/02503/edwardsj/CESM/inputdata//atm/cam/chem/trop_mozart_aero/emis/RCP85_mam3_num_a1_elev_19400115-20601215_c190718.nc',
         'num_a2      -> /work/02503/edwardsj/CESM/inputdata//atm/cam/chem/trop_mozart_aero/emis/RCP85_mam3_num_a2_elev_19400115-20601215_c190718.nc',
         'pom_a1      -> /work/02503/edwardsj/CESM/inputdata//atm/cam/chem/trop_mozart_aero/emis/RCP85_mam3_oc_elev_19400115-20601215_c190718.nc',
         'so4_a1      -> /work/02503/edwardsj/CESM/inputdata//atm/cam/chem/trop_mozart_aero/emis/RCP85_mam3_so4_a1_elev_19400115-20601215_c190718.nc',
         'so4_a2      -> /work/02503/edwardsj/CESM/inputdata//atm/cam/chem/trop_mozart_aero/emis/RCP85_mam3_so4_a2_elev_19400115-20601215_c190718.nc'
 ext_frc_type           = 'INTERP_MISSING_MONTHS'
 srf_emis_specifier             = 'DMS       -> /work/02503/edwardsj/CESM/inputdata//atm/cam/chem/trop_mozart_aero/emis/aerocom_mam3_dms_surf_1849-2100_c140822.nc',
         'SO2       -> /work/02503/edwardsj/CESM/inputdata//atm/cam/chem/trop_mozart_aero/emis/RCP85_mam3_so2_surf_19400115-20601215_c190718.nc',
         'SOAG      -> /work/02503/edwardsj/CESM/inputdata//atm/cam/chem/trop_mozart_aero/emis/RCP85_soag_1.5_surf_19400115-20601215_c190718.nc',
         'bc_a1     -> /work/02503/edwardsj/CESM/inputdata//atm/cam/chem/trop_mozart_aero/emis/RCP85_mam3_bc_surf_19400115-20601215_c190718.nc',
         'num_a1    -> /work/02503/edwardsj/CESM/inputdata//atm/cam/chem/trop_mozart_aero/emis/RCP85_mam3_num_a1_surf_19400115-20601215_c190718.nc',
         'num_a2    -> /work/02503/edwardsj/CESM/inputdata//atm/cam/chem/trop_mozart_aero/emis/RCP85_mam3_num_a2_surf_19400115-20601215_c190718.nc',
         'pom_a1    -> /work/02503/edwardsj/CESM/inputdata//atm/cam/chem/trop_mozart_aero/emis/RCP85_mam3_oc_surf_19400115-20601215_c190718.nc',
         'so4_a1    -> /work/02503/edwardsj/CESM/inputdata//atm/cam/chem/trop_mozart_aero/emis/RCP85_mam3_so4_a1_surf_19400115-20601215_c190718.nc',
         'so4_a2    -> /work/02503/edwardsj/CESM/inputdata//atm/cam/chem/trop_mozart_aero/emis/RCP85_mam3_so4_a2_surf_19400115-20601215_c190718.nc'
 srf_emis_type          = 'INTERP_MISSING_MONTHS'
 tracer_cnst_datapath           = '/work/02503/edwardsj/CESM/inputdata//atm/cam/chem/trop_mozart_aero/oxid'
 tracer_cnst_file               = 'oxid_rcp85_v1_1.9x2.5_L26_19450115-20551215_c190517.nc'
 tracer_cnst_filelist           = 'oxid_1.9x2.5_L26_clim_list.c090805.txt'
 tracer_cnst_specifier          = 'O3','OH','NO3','HO2'
 tracer_cnst_type               = 'INTERP_MISSING_MONTHS'

 bndtvghg               = '/work/02503/edwardsj/CESM/inputdata//atm/cam/ggas/ghg_rcp85_1765-2500_c100203.nc'
 solar_data_file        = '/work/02503/edwardsj/CESM/inputdata//atm/cam/solar/spectral_irradiance_Lean_1610-2140_ann_c100408.nc'

 prescribed_ozone_datapath      = '/work/02503/edwardsj/CESM/inputdata//atm/cam/ozone'
 prescribed_ozone_file          = 'ozone_rcp85_v1_1.9x2.5_L66_19400115-20551215_c191111.nc'

 prescribed_volcaero_datapath           = '/work/02503/edwardsj/CESM/inputdata//atm/cam/volc'
 prescribed_volcaero_file               = 'CCSM4_volcanic_1949115-20600115_prototype1_c191112.nc'

