histaux_l2x1yrg = .true.
histaux_a2x24hr = .true.
