! Users should add all user specific namelist changes below in the form of 
! namelist_var = new_namelist_value 

!================
! 4xCO2 ramp down to PI
!================

&chem_surfvals_nl
 flbc_file              = '/glade/work/nanr/thermal-forcing/LBC_CMIP6_1pctCO2_y1-165_GlobAnnAvg_0p5degLat_c180929_REV.cdf5.nc'
 flbc_list              = 'CO2','CH4','N2O','CFC11eq','CFC12'
 flbc_type              = 'SERIAL'
 scenario_ghg           = 'CHEM_LBC_FILE'
/



 
