 hist_dov2xy = .true.,.true.
 hist_fincl2 = 'H2OSNO', 'FSNO', 'QRUNOFF', 'QSNOMELT', 'FSNO_EFF', 'SNORDSL', 'SNOW', 'FSDS', 'FSR', 'FLDS', 'FIRE', 'FIRA'
 hist_mfilt = 1,365
 hist_nhtfrq = 0,-24
 hist_avgflag_pertape = 'A','A'

! Override - updated after EAM/ELM fixes
 check_finidat_year_consistency = .true.

