!----------------------------------------------------------------------------------
! Users should add all user specific namelist changes below in the form of 
!   namelist_var = new_namelist_value 
! Note - that it does not matter what namelist group the namelist_var belongs to
!----------------------------------------------------------------------------------

ice_ic = "b.e11.B20TRC5CNBDRD.f09_g16.001.cice.r.1920-01-01-00000.nc"

 
