! Users should add all user specific namelist changes below in the form of 
! namelist_var = new_namelist_value 

ext_frc_specifier = 'H2O    -> /glade/p/cesm/cseg/inputdata/atm/cam/chem/emis/elev/H2OemissionCH4oxidationx2_3D_L70_1849-2015_CMIP6ensAvg_c180927.nc',
         'num_a1 -> /glade/p/cesm/cseg/inputdata/atm/cam/chem/emis/CMIP6_emissions_1750_2015/emissions-cmip6_num_so4_a1_anthro-ene_vertical_1750-2015_0.9x1.25_c20170616.nc',
         'num_a1 -> /glade/p/cesm/cseg/inputdata/atm/cam/chem/emis/CMIP6_emissions_1750_2015/emissions-cmip6_num_a1_so4_contvolcano_vertical_850-5000_0.9x1.25_c20170724.nc',
         'num_a2 -> /glade/p/cesm/cseg/inputdata/atm/cam/chem/emis/CMIP6_emissions_1750_2015/emissions-cmip6_num_a2_so4_contvolcano_vertical_850-5000_0.9x1.25_c20170724.nc',
         'SO2    -> /glade/p/cesm/cseg/inputdata/atm/cam/chem/emis/CMIP6_emissions_1750_2015/emissions-cmip6_SO2_contvolcano_vertical_850-5000_0.9x1.25_c20170724.nc',
         'so4_a1 -> /glade/p/cesm/cseg/inputdata/atm/cam/chem/emis/CMIP6_emissions_1750_2015/emissions-cmip6_so4_a1_anthro-ene_vertical_1750-2015_0.9x1.25_c20170616.nc',
         'so4_a1 -> /glade/p/cesm/cseg/inputdata/atm/cam/chem/emis/CMIP6_emissions_1750_2015/emissions-cmip6_so4_a1_contvolcano_vertical_850-5000_0.9x1.25_c20170724.nc',
         'so4_a2 -> /glade/p/cesm/cseg/inputdata/atm/cam/chem/emis/CMIP6_emissions_1750_2015/emissions-cmip6_so4_a2_contvolcano_vertical_850-5000_0.9x1.25_c20170724.nc'

 srf_emis_specifier             = 
         'bc_a4    -> /glade/p/cesm/cseg/inputdata/atm/cam/chem/emis/CMIP6_emissions_1750_2015/emissions-cmip6_bc_a4_anthro_surface_1750-2015_0.9x1.25_c20170608.nc',
         'bc_a4    -> /glade/p/cesm/cseg/inputdata/atm/cam/chem/emis/emissions_ssp370-BB_smoothed/emissions-cmip6-ScenarioMIP_IAMC-AIM-ssp370-1-1_smoothed_bc_a4_bb_surface_mol_175001-210101_0.9x1.25_c20201016.nc',
         'DMS      -> /glade/p/cesm/cseg/inputdata/atm/cam/chem/emis/emissions_ssp370-BB_smoothed/emissions-cmip6-ScenarioMIP_IAMC-AIM-ssp370-1-1_smoothed_DMS_bb_surface_mol_175001-210101_0.9x1.25_c20201016.nc',
         'DMS      -> /glade/p/cesm/cseg/inputdata/atm/cam/chem/emis/CMIP6_emissions_1750_2015/emissions-cmip6_DMS_other_surface_1750-2015_0.9x1.25_c20170322.nc',
         'num_a1   -> /glade/p/cesm/cseg/inputdata/atm/cam/chem/emis/emissions_ssp370-BB_smoothed/emissions-cmip6-ScenarioMIP_IAMC-AIM-ssp370-1-1_smoothed_num_so4_a1_bb_surface_mol_175001-210101_0.9x1.25_c20201016.nc',
         'num_a1   -> /glade/p/cesm/cseg/inputdata/atm/cam/chem/emis/emissions_ssp370/emissions-cmip6-ScenarioMIP_IAMC-AIM-ssp370-1-1_num_so4_a1_anthro-ag-ship_surface_mol_175001-210101_0.9x1.25_c20200924.nc',
         'num_a2   -> /glade/p/cesm/cseg/inputdata/atm/cam/chem/emis/emissions_ssp370/emissions-cmip6-ScenarioMIP_IAMC-AIM-ssp370-1-1_num_so4_a2_anthro-res_surface_mol_175001-210101_0.9x1.25_c20200924.nc',
         'num_a4   -> /glade/p/cesm/cseg/inputdata/atm/cam/chem/emis/emissions_ssp370-BB_smoothed/emissions-cmip6-ScenarioMIP_IAMC-AIM-ssp370-1-1_smoothed_num_bc_a4_bb_surface_mol_175001-210101_0.9x1.25_c20201016.nc',
         'num_a4   -> /glade/p/cesm/cseg/inputdata/atm/cam/chem/emis/CMIP6_emissions_1750_2015/emissions-cmip6_num_bc_a4_anthro_surface_1750-2015_0.9x1.25_c20170608.nc',
         'num_a4   -> /glade/p/cesm/cseg/inputdata/atm/cam/chem/emis/CMIP6_emissions_1750_2015/emissions-cmip6_num_pom_a4_anthro_surface_1750-2015_0.9x1.25_c20170608.nc',
         'num_a4   -> /glade/p/cesm/cseg/inputdata/atm/cam/chem/emis/emissions_ssp370-BB_smoothed/emissions-cmip6-ScenarioMIP_IAMC-AIM-ssp370-1-1_smoothed_num_pom_a4_bb_surface_mol_175001-210101_0.9x1.25_c20201016.nc',
         'pom_a4   -> /glade/p/cesm/cseg/inputdata/atm/cam/chem/emis/CMIP6_emissions_1750_2015/emissions-cmip6_pom_a4_anthro_surface_1750-2015_0.9x1.25_c20170608.nc',
         'pom_a4   -> /glade/p/cesm/cseg/inputdata/atm/cam/chem/emis/emissions_ssp370-BB_smoothed/emissions-cmip6-ScenarioMIP_IAMC-AIM-ssp370-1-1_smoothed_pom_a4_bb_surface_mol_175001-210101_0.9x1.25_c20201016.nc',
         'SO2      -> /glade/p/cesm/cseg/inputdata/atm/cam/chem/emis/emissions_ssp370/emissions-cmip6-ScenarioMIP_IAMC-AIM-ssp370-1-1_SO2_anthro-ag-ship-res_surface_mol_175001-210101_0.9x1.25_c20200924.nc',
         'SO2      -> /glade/p/cesm/cseg/inputdata/atm/cam/chem/emis/CMIP6_emissions_1750_2015/emissions-cmip6_SO2_anthro-ene_surface_1750-2015_0.9x1.25_c20170616.nc',
         'SO2      -> /glade/p/cesm/cseg/inputdata/atm/cam/chem/emis/emissions_ssp370-BB_smoothed/emissions-cmip6-ScenarioMIP_IAMC-AIM-ssp370-1-1_smoothed_SO2_bb_surface_mol_175001-210101_0.9x1.25_c20201016.nc',
         'so4_a1   -> /glade/p/cesm/cseg/inputdata/atm/cam/chem/emis/emissions_ssp370/emissions-cmip6-ScenarioMIP_IAMC-AIM-ssp370-1-1_so4_a1_anthro-ag-ship_surface_mol_175001-210101_0.9x1.25_c20200924.nc',
         'so4_a1   -> /glade/p/cesm/cseg/inputdata/atm/cam/chem/emis/emissions_ssp370-BB_smoothed/emissions-cmip6-ScenarioMIP_IAMC-AIM-ssp370-1-1_smoothed_so4_a1_bb_surface_mol_175001-210101_0.9x1.25_c20201016.nc',
         'so4_a2   -> /glade/p/cesm/cseg/inputdata/atm/cam/chem/emis/emissions_ssp370/emissions-cmip6-ScenarioMIP_IAMC-AIM-ssp370-1-1_so4_a2_anthro-res_surface_mol_175001-210101_0.9x1.25_c20200924.nc',
         'SOAG     -> /glade/p/cesm/cseg/inputdata/atm/cam/chem/emis/CMIP6_emissions_1750_2015/emissions-cmip6_SOAGx1.5_anthro_surface_1750-2015_0.9x1.25_c20170608.nc',
         'SOAG     -> /glade/p/cesm/cseg/inputdata/atm/cam/chem/emis/emissions_ssp370-BB_smoothed/emissions-cmip6-ScenarioMIP_IAMC-AIM-ssp370-1-1_smoothed_SOAGx1.5_bb_surface_mol_175001-210101_0.9x1.25_c20201016.nc',
         'SOAG     -> /glade/p/cesm/cseg/inputdata/atm/cam/chem/emis/CMIP6_emissions_1750_2015/emissions-cmip6_SOAGx1.5_biogenic_surface_1750-2015_0.9x1.25_c20170322.nc'

 
