!----------------------------------------------------------------------------------
! Users should add all user specific namelist changes below in the form of 
! namelist_var = new_namelist_value 
!
! EXCEPTIONS: 
! Set use_cndv           by the compset you use and the CLM_BLDNML_OPTS -dynamic_vegetation setting
! Set use_vichydro       by the compset you use and the CLM_BLDNML_OPTS -vichydro           setting
! Set use_cn             by the compset you use and CLM_BLDNML_OPTS -bgc  setting
! Set use_crop           by the compset you use and CLM_BLDNML_OPTS -crop setting
! Set spinup_state       by the CLM_BLDNML_OPTS -bgc_spinup      setting
! Set irrigate           by the CLM_BLDNML_OPTS -irrig           setting
! Set co2_ppmv           with CCSM_CO2_PPMV                      option
! Set dtime              with L_NCPL                             option
! Set fatmlndfrc         with LND_DOMAIN_PATH/LND_DOMAIN_FILE    options
! Set finidat            with RUN_REFCASE/RUN_REFDATE/RUN_REFTOD options for hybrid or branch cases
!                        (includes $inst_string for multi-ensemble cases)
! Set maxpatch_glcmec    with GLC_NEC                            option
! Set glc_do_dynglacier  with GLC_TWO_WAY_COUPLING               env variable
!----------------------------------------------------------------------------------

use_init_interp = .true.


use_c13 = .false.
use_c14 = .false.
!use_c13_timeseries = .false.
!use_c14_bombspike = .false.

! h0 stream (monthly average, gridcell-level)
! hist_fexcl1 += 'C14_SOILC_vr'
! h3 stream (yearly average, gridcell-level)
! hist_fincl4 += 'C14_SOILC_vr'

! This is desired so that we have the output needed to drive a later offline CISM Antarctica simulation
! However, this increases the cost of CLM by about 10%
glacier_region_behavior = 'single_at_atm_topo', 'virtual', 'virtual', 'virtual'

